***SUBCKT-DEFINITIONS***
.SUBCKT diodenwx#20auLvs#20cmhv7sf MINUS PLUS
.ENDS
.SUBCKT subcx#20auLvs#20cmhv7sf SUBCON sub
.ENDS
